VADER_model/bismuth/bismuth_nodes.glm

/////////////////////////////////////////////////////////////////////////////
//
// GridLAB-D service model configuration control file
// Copyright (C) 2016, SLAC National Accelerator Laboratory
// Author: Alyona Ivanova
//
/////////////////////////////////////////////////////////////////////////////


object node {
name node_01734;
phases ABC;
nominal_voltage 6928.41 V;
}


object node{
name node_1135173E_01734;
groupid primary;
phases ABN;
nominal_voltage 6928.41 V;
} 

object node{
name node_B5077460-1_01734;
groupid primary;
phases ABN;
nominal_voltage 6928.41 V;
} 

object node{
name node_1135168E_01734;
groupid primary;
phases ABN;
nominal_voltage 6928.41 V;
} 

object node{
name node_35067235_01734;
groupid primary;
phases A;
nominal_voltage 6928.41 V;
} 

object node{
name node_P5074477_F_01734;
groupid primary;
phases ABN;
nominal_voltage 6928.41 V;
} 

object node{
name node_P5074486-A_01734;
groupid primary;
phases ABN;
nominal_voltage 6928.41 V;
} 

object node{
name node_P5074351-B_01734;
groupid primary;
phases ABN;
nominal_voltage 6928.41 V;
} 

object node{
name node_P5075017-A_01734;
groupid primary;
phases ABCN;
nominal_voltage 6928.41 V;
} 

object node{
name node_P5073744-1_01734;
groupid primary;
phases ABN;
nominal_voltage 6928.41 V;
} 

object node{
name node_B5077656-1_01734;
groupid primary;
phases ABN;
nominal_voltage 6928.41 V;
} 

object node{
name node_P5073746_F_01734;
groupid primary;
phases ABN;
nominal_voltage 6928.41 V;
} 

object node{
name node_P5072452-B_01734;
groupid primary;
phases ABN;
nominal_voltage 6928.41 V;
} 

object node{
name node_B5077651-2_01734;
groupid primary;
phases ABN;
nominal_voltage 6928.41 V;
} 

object node{
name node_35122157_01734;
groupid primary;
phases ABCN;
nominal_voltage 6928.41 V;
} 

object node{
name node_ND35122373_01734;
groupid primary;
phases ABCN;
nominal_voltage 6928.41 V;
} 

object node{
name node_B5075149-2_01734;
groupid primary;
phases A;
nominal_voltage 6928.41 V;
} 

object node{
name node_B5074725-1_01734;
groupid primary;
phases A;
nominal_voltage 6928.41 V;
} 

object node{
name node_35122213_01734;
groupid primary;
phases ABCN;
nominal_voltage 6928.41 V;
} 

object node{
name node_P5072451-A_01734;
groupid primary;
phases ABN;
nominal_voltage 6928.41 V;
} 

object node{
name node_B5077461_F_01734;
groupid primary;
phases ABN;
nominal_voltage 6928.41 V;
} 

object node{
name node_275E_01734;
groupid primary;
phases ABN;
nominal_voltage 6928.41 V;
} 

object node{
name node_B5077461-2_01734;
groupid primary;
phases ABN;
nominal_voltage 6928.41 V;
} 

object node{
name node_P5074236-1_01734;
groupid primary;
phases A;
nominal_voltage 6928.41 V;
} 

object node{
name node_P5071095-A_T_01734;
groupid primary;
phases ABCN;
nominal_voltage 6928.41 V;
} 

object node{
name node_P5199702-T_F_01734;
groupid primary;
phases ABCN;
nominal_voltage 6928.41 V;
} 

object node{
name node_1677565_01734_1;
groupid primary;
phases ABN;
nominal_voltage 6928.41 V;
} 

object node{
name node_B5077652-1_01734;
groupid primary;
phases ABN;
nominal_voltage 6928.41 V;
} 

object node{
name node_P5074480_F_01734;
groupid primary;
phases ABN;
nominal_voltage 6928.41 V;
} 

object node{
name node_ND35123365_01734;
groupid primary;
phases ABCN;
nominal_voltage 6928.41 V;
} 

object node{
name node_P5073895-B_T_01734;
groupid primary;
phases ABN;
nominal_voltage 6928.41 V;
} 

object node{
name node_P5073759_F_01734;
groupid primary;
phases ABN;
nominal_voltage 6928.41 V;
} 

object node{
name node_P5071457-1_T_01734;
groupid primary;
phases ABCN;
nominal_voltage 6928.41 V;
} 

object node{
name node_173509243_01734;
groupid primary;
phases ABCN;
nominal_voltage 6928.41 V;
} 

object node{
name node_P5074301-B_01734;
groupid primary;
phases ABN;
nominal_voltage 6928.41 V;
} 

object node{
name node_P5074304-1_01734;
groupid primary;
phases ABN;
nominal_voltage 6928.41 V;
} 

object node{
name node_P5073761-1_01734;
groupid primary;
phases ABN;
nominal_voltage 6928.41 V;
} 

object node{
name node_P5074302-2_01734;
groupid primary;
phases ABN;
nominal_voltage 6928.41 V;
} 

object node{
name node_P5075194-1_T_01734;
groupid primary;
phases ABCN;
nominal_voltage 6928.41 V;
} 

object node{
name node_1326360E_01734;
groupid primary;
phases ABCN;
nominal_voltage 6928.41 V;
} 

object node{
name node_35093919_01734;
groupid primary;
phases ABCN;
nominal_voltage 6928.41 V;
} 

object node{
name node_B5077654-1_01734;
groupid primary;
phases ABN;
nominal_voltage 6928.41 V;
} 

object node{
name node_ND35123161_01734;
groupid primary;
phases ABCN;
nominal_voltage 6928.41 V;
} 

object node{
name node_P5074302-1_01734;
groupid primary;
phases ABN;
nominal_voltage 6928.41 V;
} 

object node{
name node_164818722_01734_1;
groupid primary;
phases ABN;
nominal_voltage 6928.41 V;
} 

object node{
name node_1727251E_01734_1_01734;
groupid primary;
phases ABCN;
nominal_voltage 6928.41 V;
} 

object node{
name node_ND35122756_01734;
groupid primary;
phases ABCN;
nominal_voltage 6928.41 V;
} 

object node{
name node_P5199701-A_T_01734;
groupid primary;
phases ABCN;
nominal_voltage 6928.41 V;
} 

object node{
name node_P5074235-A_T_01734;
groupid primary;
phases A;
nominal_voltage 6928.41 V;
} 

object node{
name node_164818695_01734_1;
groupid primary;
phases ABN;
nominal_voltage 6928.41 V;
} 

object node{
name node_P5074350-B_T_01734;
groupid primary;
phases ABN;
nominal_voltage 6928.41 V;
} 

object node{
name node_P5073893_F_01734;
groupid primary;
phases ABN;
nominal_voltage 6928.41 V;
} 

object node{
name node_P5073703_F_01734;
groupid primary;
phases ABN;
nominal_voltage 6928.41 V;
} 

object node{
name node_BF00291_01734;
groupid primary;
phases ABN;
nominal_voltage 6928.41 V;
} 

object node{
name node_P5074238_F_01734;
groupid primary;
phases A;
nominal_voltage 6928.41 V;
} 

object node{
name node_P5072327-A_01734;
groupid primary;
phases ABN;
nominal_voltage 6928.41 V;
} 

object node{
name node_P5073279-A_01734;
groupid primary;
phases ABN;
nominal_voltage 6928.41 V;
} 

object node{
name node_4686029E_01734;
groupid primary;
phases ABCN;
nominal_voltage 6928.41 V;
} 

object node{
name node_2215644E_01734;
groupid primary;
phases ABN;
nominal_voltage 6928.41 V;
} 

object node{
name node_35122223_01734_1;
groupid primary;
phases ABCN;
nominal_voltage 6928.41 V;
} 

object node{
name node_ND35123167_01734;
groupid primary;
phases ABCN;
nominal_voltage 6928.41 V;
} 

object node{
name node_P5074235-B_01734;
groupid primary;
phases A;
nominal_voltage 6928.41 V;
} 

object node{
name node_ND35122989_01734;
groupid primary;
phases ABN;
nominal_voltage 6928.41 V;
} 

object node{
name node_P5075198-1_T_01734;
groupid primary;
phases ABCN;
nominal_voltage 6928.41 V;
} 

object node{
name node_2023493E_01734;
groupid primary;
phases ABCN;
nominal_voltage 6928.41 V;
} 

object node{
name node_35067245_01734_1;
groupid primary;
phases A;
nominal_voltage 6928.41 V;
} 

object node{
name node_35122075_01734_1;
groupid primary;
phases ABCN;
nominal_voltage 6928.41 V;
} 

object node{
name node_P5072449-B_T_01734;
groupid primary;
phases ABN;
nominal_voltage 6928.41 V;
} 

object node{
name node_B5074719-1_01734;
groupid primary;
phases A;
nominal_voltage 6928.41 V;
} 

object node{
name node_ND35123252_01734;
groupid primary;
phases ABCN;
nominal_voltage 6928.41 V;
} 

object node{
name node_1642352E_01734_1;
groupid primary;
phases ABN;
nominal_voltage 6928.41 V;
} 

object node{
name node_P5073898-2_01734;
groupid primary;
phases ABN;
nominal_voltage 6928.41 V;
} 

object node{
name node_P5073759-1_01734;
groupid primary;
phases ABN;
nominal_voltage 6928.41 V;
} 

object node{
name node_P5075199-1_01734;
groupid primary;
phases ABCN;
nominal_voltage 6928.41 V;
} 

object node{
name node_P5072326-B_T_01734;
groupid primary;
phases ABN;
nominal_voltage 6928.41 V;
} 

object node{
name node_1130007E_01734;
groupid primary;
phases ABN;
nominal_voltage 6928.41 V;
} 

object node{
name node_1642361E_01734;
groupid primary;
phases ABCN;
nominal_voltage 6928.41 V;
} 

object node{
name node_P5075014-1_T_01734;
groupid primary;
phases ABCN;
nominal_voltage 6928.41 V;
} 

object node{
name node_BS5010-1_01734;
groupid primary;
phases ABCN;
nominal_voltage 6928.41 V;
} 

object node{
name node_147900972_01734_1;
groupid primary;
phases ABN;
nominal_voltage 6928.41 V;
} 

object node{
name node_P5446956-1_T_01734;
groupid primary;
phases ABCN;
nominal_voltage 6928.41 V;
} 

object node{
name node_P5074299-B_01734;
groupid primary;
phases ABN;
nominal_voltage 6928.41 V;
} 

object node{
name node_153008298_01734_1;
groupid primary;
phases ABN;
nominal_voltage 6928.41 V;
} 

object node{
name node_B5074718-2_01734;
groupid primary;
phases A;
nominal_voltage 6928.41 V;
} 

object node{
name node_B5077651_F_01734;
groupid primary;
phases ABN;
nominal_voltage 6928.41 V;
} 

object node{
name node_P5074503-1_01734;
groupid primary;
phases ABN;
nominal_voltage 6928.41 V;
} 

object node{
name node_90063661_01734_1;
groupid primary;
phases ABN;
nominal_voltage 6928.41 V;
} 

object node{
name node_2005E_01734_1;
groupid primary;
phases ABCN;
nominal_voltage 6928.41 V;
} 

object node{
name node_P5074303-A_01734;
groupid primary;
phases ABN;
nominal_voltage 6928.41 V;
} 

object node{
name node_B5074721_F_01734;
groupid primary;
phases A;
nominal_voltage 6928.41 V;
} 

object node{
name node_35094800_01734;
groupid primary;
phases ABCN;
nominal_voltage 6928.41 V;
} 

object node{
name node_1326360E_01734_1;
groupid primary;
phases ABCN;
nominal_voltage 6928.41 V;
} 

object node{
name node_1573760E_01734;
groupid primary;
phases ABCN;
nominal_voltage 6928.41 V;
} 

object node{
name node_P5073899-B_01734;
groupid primary;
phases ABN;
nominal_voltage 6928.41 V;
} 

object node{
name node_ND35122444_01734;
groupid primary;
phases ABCN;
nominal_voltage 6928.41 V;
} 

object node{
name node_P5073263-B_01734;
groupid primary;
phases ABN;
nominal_voltage 6928.41 V;
} 

object node{
name node_1677565E_01734_1;
groupid primary;
phases ABN;
nominal_voltage 6928.41 V;
} 

object node{
name node_P5074483_F_01734;
groupid primary;
phases ABN;
nominal_voltage 6928.41 V;
} 

object node{
name node_P5077206_01734;
groupid primary;
phases ABCN;
nominal_voltage 6928.41 V;
} 

object node{
name node_ND35123274_01734;
groupid primary;
phases ABCN;
nominal_voltage 6928.41 V;
} 

object node{
name node_P5075015-1_T_01734;
groupid primary;
phases ABCN;
nominal_voltage 6928.41 V;
} 

object node{
name node_98883292_01734;
groupid primary;
phases ABN;
nominal_voltage 6928.41 V;
} 

object node{
name node_1912002E_01734;
groupid primary;
phases ABN;
nominal_voltage 6928.41 V;
} 

object node{
name node_4444590E_01734_1;
groupid primary;
phases ABN;
nominal_voltage 6928.41 V;
} 

object node{
name node_530833E_01734_1;
groupid primary;
phases ABCN;
nominal_voltage 6928.41 V;
} 

object node{
name node_P5074303-B_01734;
groupid primary;
phases ABN;
nominal_voltage 6928.41 V;
} 

object node{
name node_155520478_01734_1;
groupid primary;
phases ABN;
nominal_voltage 6928.41 V;
} 

object node{
name node_P5074238-1_01734;
groupid primary;
phases A;
nominal_voltage 6928.41 V;
} 

object node{
name node_174293723_01734;
groupid primary;
phases ABN;
nominal_voltage 6928.41 V;
} 

object node{
name node_1881969E_01734_1;
groupid primary;
phases ABCN;
nominal_voltage 6928.41 V;
} 

object node{
name node_153008799_01734_1;
groupid primary;
phases ABCN;
nominal_voltage 6928.41 V;
} 

object node{
name node_P5072324-A_01734;
groupid primary;
phases ABN;
nominal_voltage 6928.41 V;
} 

object node{
name node_P5074499-1_01734;
groupid primary;
phases ABN;
nominal_voltage 6928.41 V;
} 

object node{
name node_P5511896-1_T_01734;
groupid primary;
phases ABCN;
nominal_voltage 6928.41 V;
} 

object node{
name node_ND35123097_01734;
groupid primary;
phases ABCN;
nominal_voltage 6928.41 V;
} 

object node{
name node_P5072324-A_T_01734;
groupid primary;
phases ABN;
nominal_voltage 6928.41 V;
} 

object node{
name node_35122233_01734;
groupid primary;
phases ABCN;
nominal_voltage 6928.41 V;
} 

object node{
name node_OS0456-1_01734;
groupid primary;
phases ABCN;
nominal_voltage 6928.41 V;
} 

object node{
name node_P5074301-A_T_01734;
groupid primary;
phases ABN;
nominal_voltage 6928.41 V;
} 

object node{
name node_1592668E_01734;
groupid primary;
phases ABN;
nominal_voltage 6928.41 V;
} 

object node{
name node_35069085_01734;
groupid primary;
phases ABN;
nominal_voltage 6928.41 V;
} 

object node{
name node_B5074722_01734_1;
groupid primary;
phases A;
nominal_voltage 6928.41 V;
} 

object node{
name node_1963597E_01734_1;
groupid primary;
phases ABCN;
nominal_voltage 6928.41 V;
} 

object node{
name node_P5074238-2_01734;
groupid primary;
phases A;
nominal_voltage 6928.41 V;
} 

object node{
name node_P5074482-A_01734;
groupid primary;
phases ABN;
nominal_voltage 6928.41 V;
} 

object node{
name node_530834E_01734;
groupid primary;
phases ABCN;
nominal_voltage 6928.41 V;
} 

object node{
name node_P5074239_F_01734;
groupid primary;
phases A;
nominal_voltage 6928.41 V;
} 

object node{
name node_ND144833337_01734;
groupid primary;
phases ABCN;
nominal_voltage 6928.41 V;
} 

object node{
name node_1592668E_01734_1;
groupid primary;
phases ABN;
nominal_voltage 6928.41 V;
} 

object node{
name node_ND35122600_01734;
groupid primary;
phases ABCN;
nominal_voltage 6928.41 V;
} 

object node{
name node_P5074499-2_01734;
groupid primary;
phases ABN;
nominal_voltage 6928.41 V;
} 

object node{
name node_P5074486-B_T_01734;
groupid primary;
phases ABN;
nominal_voltage 6928.41 V;
} 

object node{
name node_174293775_01734;
groupid primary;
phases ABN;
nominal_voltage 6928.41 V;
} 

object node{
name node_P5074300-1_01734;
groupid primary;
phases ABN;
nominal_voltage 6928.41 V;
} 

object node{
name node_P5074501-A_T_01734;
groupid primary;
phases ABN;
nominal_voltage 6928.41 V;
} 

object node{
name node_P5074503_F_01734;
groupid primary;
phases ABN;
nominal_voltage 6928.41 V;
} 

object node{
name node_108691207_01734_1;
groupid primary;
phases ABCN;
nominal_voltage 6928.41 V;
} 

object node{
name node_1326351E_01734;
groupid primary;
phases ABN;
nominal_voltage 6928.41 V;
} 

object node{
name node_1912007E_01734;
groupid primary;
phases ABCN;
nominal_voltage 6928.41 V;
} 

object node{
name node_153008217_01734;
groupid primary;
phases ABN;
nominal_voltage 6928.41 V;
} 

object node{
name node_35122131_01734;
groupid primary;
phases ABCN;
nominal_voltage 6928.41 V;
} 

object node{
name node_P5074484-2_01734;
groupid primary;
phases ABN;
nominal_voltage 6928.41 V;
} 

object node{
name node_1535653E_01734_1;
groupid primary;
phases ABCN;
nominal_voltage 6928.41 V;
} 

object node{
name node_P5073279-B_01734;
groupid primary;
phases ABN;
nominal_voltage 6928.41 V;
} 

object node{
name node_4444590E_01734;
groupid primary;
phases ABN;
nominal_voltage 6928.41 V;
} 

object node{
name node_BS5316-T_01734;
groupid primary;
phases ABCN;
nominal_voltage 6928.41 V;
} 

object node{
name node_1326357E_01734;
groupid primary;
phases ABN;
nominal_voltage 6928.41 V;
} 

object node{
name node_4366140E_01734;
groupid primary;
phases ABCN;
nominal_voltage 6928.41 V;
} 

object node{
name node_1247610E_01734;
groupid primary;
phases ABN;
nominal_voltage 6928.41 V;
} 

object node{
name node_35067235_01734_1;
groupid primary;
phases A;
nominal_voltage 6928.41 V;
} 

object node{
name node_1912004E_01734;
groupid primary;
phases ABCN;
nominal_voltage 6928.41 V;
} 

object node{
name node_P5073739-B_T_01734;
groupid primary;
phases ABN;
nominal_voltage 6928.41 V;
} 

object node{
name node_1658236E_01734_1;
groupid primary;
phases ABN;
nominal_voltage 6928.41 V;
} 

object node{
name node_P5511928-1_T_01734;
groupid primary;
phases ABCN;
nominal_voltage 6928.41 V;
} 

object node{
name node_P5075202-1_01734;
groupid primary;
phases ABCN;
nominal_voltage 6928.41 V;
} 

object node{
name node_P5073742_F_01734;
groupid primary;
phases ABN;
nominal_voltage 6928.41 V;
} 

object node{
name node_173509243_01734_1;
groupid primary;
phases ABCN;
nominal_voltage 6928.41 V;
} 

object node{
name node_ND35122365_01734;
groupid primary;
phases ABCN;
nominal_voltage 6928.41 V;
} 

object node{
name node_35094824_01734;
groupid primary;
phases ABCN;
nominal_voltage 6928.41 V;
} 

object node{
name node_1677566E_01734;
groupid primary;
phases ABN;
nominal_voltage 6928.41 V;
} 

object node{
name node_35121135_01734_1;
groupid primary;
phases A;
nominal_voltage 6928.41 V;
} 

object node{
name node_BS2226-T_01734;
groupid primary;
phases ABCN;
nominal_voltage 6928.41 V;
} 

object node{
name node_35121145_01734_1;
groupid primary;
phases A;
nominal_voltage 6928.41 V;
} 

object node{
name node_P5074300-2_01734;
groupid primary;
phases ABN;
nominal_voltage 6928.41 V;
} 

object node{
name node_OS0456-2_T_01734;
groupid primary;
phases ABCN;
nominal_voltage 6928.41 V;
} 

object node{
name node_P5074240-1_01734;
groupid primary;
phases A;
nominal_voltage 6928.41 V;
} 

object node{
name node_P5074236_F_01734;
groupid primary;
phases A;
nominal_voltage 6928.41 V;
} 

object node{
name node_P5072323-A_01734;
groupid primary;
phases ABN;
nominal_voltage 6928.41 V;
} 

object node{
name node_164818668_01734_1;
groupid primary;
phases ABN;
nominal_voltage 6928.41 V;
} 

object node{
name node_P5075200-1_T_01734;
groupid primary;
phases ABCN;
nominal_voltage 6928.41 V;
} 

object node{
name node_OS0456-5_01734;
groupid primary;
phases ABCN;
nominal_voltage 6928.41 V;
} 

object node{
name node_P5074501-B_01734;
groupid primary;
phases ABN;
nominal_voltage 6928.41 V;
} 

object node{
name node_P5076245_01734;
groupid primary;
phases ABCN;
nominal_voltage 6928.41 V;
} 

object node{
name node_P5074352_F_01734;
groupid primary;
phases ABN;
nominal_voltage 6928.41 V;
} 

object node{
name node_BS5316-R_T_01734;
groupid primary;
phases ABCN;
nominal_voltage 6928.41 V;
} 

object node{
name node_1677560E_01734;
groupid primary;
phases ABCN;
nominal_voltage 6928.41 V;
} 

object node{
name node_BF00629_01734;
groupid primary;
phases ABN;
nominal_voltage 6928.41 V;
} 

object node{
name node_P5075012-1_T_01734;
groupid primary;
phases ABCN;
nominal_voltage 6928.41 V;
} 

object node{
name node_P5072323-B_T_01734;
groupid primary;
phases ABN;
nominal_voltage 6928.41 V;
} 

object node{
name node_ND35122952_01734;
groupid primary;
phases ABCN;
nominal_voltage 6928.41 V;
} 

object node{
name node_P5073264-B_01734;
groupid primary;
phases ABN;
nominal_voltage 6928.41 V;
} 

object node{
name node_P5072326-A_01734;
groupid primary;
phases ABN;
nominal_voltage 6928.41 V;
} 

object node{
name node_1326362E_01734_1;
groupid primary;
phases ABCN;
nominal_voltage 6928.41 V;
} 

object node{
name node_P5073897-B_T_01734;
groupid primary;
phases ABN;
nominal_voltage 6928.41 V;
} 

object node{
name node_P5073896-2_01734;
groupid primary;
phases ABN;
nominal_voltage 6928.41 V;
} 

object node{
name node_118982594_01734_1;
groupid primary;
phases A;
nominal_voltage 6928.41 V;
} 

object node{
name node_OS0456-3_01734;
groupid primary;
phases ABCN;
nominal_voltage 6928.41 V;
} 

object node{
name node_147900999_01734_1;
groupid primary;
phases ABN;
nominal_voltage 6928.41 V;
} 

object node{
name node_35066109_01734;
groupid primary;
phases ABCN;
nominal_voltage 6928.41 V;
} 

object node{
name node_96744670_01734;
groupid primary;
phases ABN;
nominal_voltage 6928.41 V;
} 

object node{
name node_B5074720_F_01734;
groupid primary;
phases A;
nominal_voltage 6928.41 V;
} 

object node{
name node_P5073738-2_01734;
groupid primary;
phases A;
nominal_voltage 6928.41 V;
} 

object node{
name node_P5075199-1_T_01734;
groupid primary;
phases ABCN;
nominal_voltage 6928.41 V;
} 

object node{
name node_P5074237-1_01734;
groupid primary;
phases A;
nominal_voltage 6928.41 V;
} 

object node{
name node_P5073740-B_01734;
groupid primary;
phases ABN;
nominal_voltage 6928.41 V;
} 

object node{
name node_1247612E_01734;
groupid primary;
phases ABN;
nominal_voltage 6928.41 V;
} 

object node{
name node_ND35123807_01734;
groupid primary;
phases ABCN;
nominal_voltage 6928.41 V;
} 

object node{
name node_1912006E_01734_1;
groupid primary;
phases ABCN;
nominal_voltage 6928.41 V;
} 

object node{
name node_1912001E_01734_1;
groupid primary;
phases ABCN;
nominal_voltage 6928.41 V;
} 

object node{
name node_174293723_01734_1;
groupid primary;
phases ABN;
nominal_voltage 6928.41 V;
} 

object node{
name node_P5073894-1_01734;
groupid primary;
phases ABN;
nominal_voltage 6928.41 V;
} 

object node{
name node_35121145_01734;
groupid primary;
phases A;
nominal_voltage 6928.41 V;
} 

object node{
name node_P5074478-1_01734;
groupid primary;
phases ABN;
nominal_voltage 6928.41 V;
} 

object node{
name node_P5073757-2_01734;
groupid primary;
phases ABN;
nominal_voltage 6928.41 V;
} 

object node{
name node_35122101_01734_1;
groupid primary;
phases ABCN;
nominal_voltage 6928.41 V;
} 

object node{
name node_35067245_01734;
groupid primary;
phases A;
nominal_voltage 6928.41 V;
} 

object node{
name node_P5073896_F_01734;
groupid primary;
phases ABN;
nominal_voltage 6928.41 V;
} 

object node{
name node_P5073703-2_01734;
groupid primary;
phases ABN;
nominal_voltage 6928.41 V;
} 

object node{
name node_1677563E_01734_1;
groupid primary;
phases ABN;
nominal_voltage 6928.41 V;
} 

object node{
name node_ND35122436_01734;
groupid primary;
phases ABCN;
nominal_voltage 6928.41 V;
} 

object node{
name node_ND35123091_01734;
groupid primary;
phases ABCN;
nominal_voltage 6928.41 V;
} 

object node{
name node_35122121_01734;
groupid primary;
phases ABCN;
nominal_voltage 6928.41 V;
} 

object node{
name node_1680895E_01734_1;
groupid primary;
phases ABN;
nominal_voltage 6928.41 V;
} 

object node{
name node_P5073763-B_01734;
groupid primary;
phases ABN;
nominal_voltage 6928.41 V;
} 

object node{
name node_P5199701-B_01734;
groupid primary;
phases ABCN;
nominal_voltage 6928.41 V;
} 

object node{
name node_P5074299-A_T_01734;
groupid primary;
phases ABN;
nominal_voltage 6928.41 V;
} 

object node{
name node_P5074483-1_01734;
groupid primary;
phases ABN;
nominal_voltage 6928.41 V;
} 

object node{
name node_ND35123010_01734;
groupid primary;
phases ABCN;
nominal_voltage 6928.41 V;
} 

object node{
name node_ND35123448_01734;
groupid primary;
phases ABCN;
nominal_voltage 6928.41 V;
} 

object node{
name node_P5074352-1_01734;
groupid primary;
phases ABN;
nominal_voltage 6928.41 V;
} 

object node{
name node_P5074478-2_01734;
groupid primary;
phases ABN;
nominal_voltage 6928.41 V;
} 

object node{
name node_90063629_01734_1;
groupid primary;
phases ABN;
nominal_voltage 6928.41 V;
} 

object node{
name node_1680935E_01734;
groupid primary;
phases ABN;
nominal_voltage 6928.41 V;
} 

object node{
name node_P5446885-1_T_01734;
groupid primary;
phases ABCN;
nominal_voltage 6928.41 V;
} 

object node{
name node_B5074725_F_01734;
groupid primary;
phases A;
nominal_voltage 6928.41 V;
} 

object node{
name node_35122167_01734;
groupid primary;
phases ABN;
nominal_voltage 6928.41 V;
} 

object node{
name node_151792375_01734;
groupid primary;
phases ABN;
nominal_voltage 6928.41 V;
} 

object node{
name node_147900999_01734;
groupid primary;
phases ABN;
nominal_voltage 6928.41 V;
} 

object node{
name node_P5075018-A_01734;
groupid primary;
phases ABCN;
nominal_voltage 6928.41 V;
} 

object node{
name node_P5071095-B_01734;
groupid primary;
phases ABCN;
nominal_voltage 6928.41 V;
} 

object node{
name node_P5073742-1_01734;
groupid primary;
phases ABN;
nominal_voltage 6928.41 V;
} 

object node{
name node_1912001E_01734;
groupid primary;
phases ABCN;
nominal_voltage 6928.41 V;
} 

object node{
name node_P5073739-B_01734;
groupid primary;
phases ABN;
nominal_voltage 6928.41 V;
} 

object node{
name node_1677566_01734;
groupid primary;
phases ABCN;
nominal_voltage 6928.41 V;
} 

object node{
name node_P5074965-1_T_01734;
groupid primary;
phases ABCN;
nominal_voltage 6928.41 V;
} 

object node{
name node_P5071382-1_01734;
groupid primary;
phases ABCN;
nominal_voltage 6928.41 V;
} 

object node{
name node_4009399E_01734;
groupid primary;
phases ABCN;
nominal_voltage 6928.41 V;
} 

object node{
name node_B5074724-2_01734;
groupid primary;
phases A;
nominal_voltage 6928.41 V;
} 

object node{
name node_P5073894_F_01734;
groupid primary;
phases ABN;
nominal_voltage 6928.41 V;
} 

object node{
name node_BS5010-1_01734_1;
groupid primary;
phases ABCN;
nominal_voltage 6928.41 V;
} 

object node{
name node_35122131_01734_1;
groupid primary;
phases ABCN;
nominal_voltage 6928.41 V;
} 

object node{
name node_1912002E_01734_1;
groupid primary;
phases ABN;
nominal_voltage 6928.41 V;
} 

object node{
name node_P5075011-1_T_01734;
groupid primary;
phases ABCN;
nominal_voltage 6928.41 V;
} 

object node{
name node_P5199701-A_01734;
groupid primary;
phases ABCN;
nominal_voltage 6928.41 V;
} 

object node{
name node_BS2226-T_T_01734;
groupid primary;
phases ABCN;
nominal_voltage 6928.41 V;
} 

object node{
name node_ND35123195_01734;
groupid primary;
phases ABCN;
nominal_voltage 6928.41 V;
} 

object node{
name node_35067949_01734;
groupid primary;
phases ABCN;
nominal_voltage 6928.41 V;
} 

object node{
name node_P5072326-B_01734;
groupid primary;
phases ABN;
nominal_voltage 6928.41 V;
} 

object node{
name node_688977H_01734;
groupid primary;
phases ABN;
nominal_voltage 6928.41 V;
} 

object node{
name node_P5074240_F_01734;
groupid primary;
phases A;
nominal_voltage 6928.41 V;
} 

object node{
name node_153008244_01734_1;
groupid primary;
phases ABN;
nominal_voltage 6928.41 V;
} 

object node{
name node_B5075149_F_01734;
groupid primary;
phases A;
nominal_voltage 6928.41 V;
} 

object node{
name node_B5074723-2_01734;
groupid primary;
phases A;
nominal_voltage 6928.41 V;
} 

object node{
name node_1135172E_01734;
groupid primary;
phases ABN;
nominal_voltage 6928.41 V;
} 

object node{
name node_P5073701-B_01734;
groupid primary;
phases A;
nominal_voltage 6928.41 V;
} 

object node{
name node_35122121_01734_1;
groupid primary;
phases ABCN;
nominal_voltage 6928.41 V;
} 

object node{
name node_P5073762-2_01734;
groupid primary;
phases ABN;
nominal_voltage 6928.41 V;
} 

object node{
name node_35066117_01734;
groupid primary;
phases ABCN;
nominal_voltage 6928.41 V;
} 

object node{
name node_P5075009-1_01734;
groupid primary;
phases ABCN;
nominal_voltage 6928.41 V;
} 

object node{
name node_RCS0095_01734;
groupid primary;
phases ABCN;
nominal_voltage 6928.41 V;
} 

object node{
name node_148470588_01734;
groupid primary;
phases A;
nominal_voltage 6928.41 V;
} 

object node{
name node_P5071887-1_T_01734;
groupid primary;
phases ABCN;
nominal_voltage 6928.41 V;
} 

object node{
name node_P5074485_F_01734;
groupid primary;
phases ABN;
nominal_voltage 6928.41 V;
} 

object node{
name node_P5072453-B_01734;
groupid primary;
phases ABN;
nominal_voltage 6928.41 V;
} 

object node{
name node_P5075017-B_T_01734;
groupid primary;
phases ABCN;
nominal_voltage 6928.41 V;
} 

object node{
name node_P5074501-A_01734;
groupid primary;
phases ABN;
nominal_voltage 6928.41 V;
} 

object node{
name node_1677561E_01734_1;
groupid primary;
phases ABN;
nominal_voltage 6928.41 V;
} 

object node{
name node_153008799_01734;
groupid primary;
phases ABCN;
nominal_voltage 6928.41 V;
} 

object node{
name node_B5074720-1_01734;
groupid primary;
phases A;
nominal_voltage 6928.41 V;
} 

object node{
name node_P5078088-1_T_01734;
groupid primary;
phases ABCN;
nominal_voltage 6928.41 V;
} 

object node{
name node_B5075146_F_01734;
groupid primary;
phases A;
nominal_voltage 6928.41 V;
} 

object node{
name node_B5074723_F_01734;
groupid primary;
phases A;
nominal_voltage 6928.41 V;
} 

object node{
name node_P5074479_F_01734;
groupid primary;
phases ABN;
nominal_voltage 6928.41 V;
} 

object node{
name node_96744640_01734;
groupid primary;
phases ABN;
nominal_voltage 6928.41 V;
} 

object node{
name node_P5398462-1_01734;
groupid primary;
phases ABCN;
nominal_voltage 6928.41 V;
} 

object node{
name node_P5073264-A_01734;
groupid primary;
phases ABN;
nominal_voltage 6928.41 V;
} 

...