VADER_model/bismuth/bismuth_current.csv
# bismuth_current.csv run at 2013-01-01 00:00:00 PST on 950 links
link_name,currA_real,currA_imag,currB_real,currB_imag,currC_real,currC_imag
TX_B5077655_A,0.223146,-0.023954,0.000000,0.000000,0.000000,0.000000
TX_1677564E_A,0.223209,-0.024619,0.000000,0.000000,0.000000,0.000000
TX_1677564E_B,0.000000,0.000000,-0.134260,-0.179960,0.000000,0.000000
TX_1677564E_C,0.000000,0.000000,0.000000,0.000000,-0.087864,0.202659
TX_P5074500_A,0.223142,-0.023891,0.000000,0.000000,0.000000,0.000000
TX_P5075009_A,0.223144,-0.023902,0.000000,0.000000,0.000000,0.000000
TX_P5075009_B,0.000000,0.000000,-0.133774,-0.180323,0.000000,0.000000
TX_P5075009_C,0.000000,0.000000,0.000000,0.000000,-0.088271,0.202312
TX_P5074484_A,0.223167,-0.023933,0.000000,0.000000,0.000000,0.000000
TX_P5073702_A,0.223138,-0.023881,0.000000,0.000000,0.000000,0.000000
TX_1135173E_A,0.222311,-0.024957,0.000000,0.000000,0.000000,0.000000
TX_P5071382_A,0.668682,-0.072127,0.000000,0.000000,0.000000,0.000000
TX_P5071382_B,0.000000,0.000000,-0.401542,-0.540275,0.000000,0.000000
TX_P5071382_C,0.000000,0.000000,0.000000,0.000000,-0.263886,0.606679
TX_P5078088_A,0.667287,-0.074044,0.000000,0.000000,0.000000,0.000000
TX_P5078088_B,0.000000,0.000000,-0.397985,-0.541403,0.000000,0.000000
TX_P5078088_C,0.000000,0.000000,0.000000,0.000000,-0.265950,0.608822
TX_P5511896_A,0.223113,-0.023932,0.000000,0.000000,0.000000,0.000000
TX_P5511896_B,0.000000,0.000000,-0.133857,-0.180327,0.000000,0.000000
TX_P5511896_C,0.000000,0.000000,0.000000,0.000000,-0.088171,0.202350
TX_P5328820_A,0.445941,-0.047919,0.000000,0.000000,0.000000,0.000000
TX_P5328820_B,0.000000,0.000000,-0.267101,-0.361117,0.000000,0.000000
TX_P5328820_C,0.000000,0.000000,0.000000,0.000000,-0.176674,0.405202
TX_P5073763_A,0.223180,-0.023968,0.000000,0.000000,0.000000,0.000000
TX_P5073263_A,0.223233,-0.023274,0.000000,0.000000,0.000000,0.000000
TX_4750759E_A,0.223078,-0.023822,0.000000,0.000000,0.000000,0.000000
TX_4750759E_B,0.000000,0.000000,-0.133768,-0.180500,0.000000,0.000000
TX_4750759E_C,0.000000,0.000000,0.000000,0.000000,-0.088231,0.202423
TX_B5074720_A,0.473209,-0.051779,0.000000,0.000000,0.000000,0.000000
TX_P5075014_A,0.669489,-0.071865,0.000000,0.000000,0.000000,0.000000
TX_P5075014_B,0.000000,0.000000,-0.401230,-0.540844,0.000000,0.000000
TX_P5075014_C,0.000000,0.000000,0.000000,0.000000,-0.264952,0.606992
TX_P5073900_A,0.446222,-0.047500,0.000000,0.000000,0.000000,0.000000
TX_P5074350_A,0.223143,-0.023893,0.000000,0.000000,0.000000,0.000000
TX_P5074965_A,0.223157,-0.023933,0.000000,0.000000,0.000000,0.000000
TX_P5074965_B,0.000000,0.000000,-0.133745,-0.180297,0.000000,0.000000
TX_P5074965_C,0.000000,0.000000,0.000000,0.000000,-0.088310,0.202322
TX_P5073893_A,0.223124,-0.023722,0.000000,0.000000,0.000000,0.000000
TX_P5075200_A,0.222892,-0.024009,0.000000,0.000000,0.000000,0.000000
TX_P5075200_B,0.000000,0.000000,-0.133818,-0.180107,0.000000,0.000000
TX_P5075200_C,0.000000,0.000000,0.000000,0.000000,-0.087989,0.202209
TX_P5074968_A,0.223085,-0.023788,0.000000,0.000000,0.000000,0.000000
TX_P5074968_B,0.000000,0.000000,-0.133762,-0.180508,0.000000,0.000000
TX_P5074968_C,0.000000,0.000000,0.000000,0.000000,-0.088243,0.202398
TX_B5074721_A,0.446358,-0.047964,0.000000,0.000000,0.000000,0.000000
TX_P5071095_A,0.222427,-0.024648,0.000000,0.000000,0.000000,0.000000
TX_P5071095_B,0.000000,0.000000,-0.132632,-0.180483,0.000000,0.000000
TX_P5071095_C,0.000000,0.000000,0.000000,0.000000,-0.088677,0.202923
TX_1247606E_A,0.222306,-0.024904,0.000000,0.000000,0.000000,0.000000
TX_P5075015_A,0.223161,-0.023922,0.000000,0.000000,0.000000,0.000000
TX_P5075015_B,0.000000,0.000000,-0.133714,-0.180297,0.000000,0.000000
TX_P5075015_C,0.000000,0.000000,0.000000,0.000000,-0.088344,0.202314
TX_B5077460_A,0.223141,-0.023890,0.000000,0.000000,0.000000,0.000000
TX_P5074482_A,0.446346,-0.047933,0.000000,0.000000,0.000000,0.000000
TX_1247608E_A,0.222307,-0.024906,0.000000,0.000000,0.000000,0.000000
TX_P5074501_A,0.223146,-0.023957,0.000000,0.000000,0.000000,0.000000
TX_1135171E_A,0.222308,-0.024912,0.000000,0.000000,0.000000,0.000000
TX_1678615E_A,0.222986,-0.023783,0.000000,0.000000,0.000000,0.000000
TX_1678615E_B,0.000000,0.000000,-0.133814,-0.180538,0.000000,0.000000
TX_1678615E_C,0.000000,0.000000,0.000000,0.000000,-0.088058,0.202368
TX_P5074238_A,0.223002,-0.023664,0.000000,0.000000,0.000000,0.000000
TX_P5071096_A,1.113685,-0.122400,0.000000,0.000000,0.000000,0.000000
TX_P5071096_B,0.000000,0.000000,-0.667312,-0.902002,0.000000,0.000000
TX_P5071096_C,0.000000,0.000000,0.000000,0.000000,-0.440858,1.014136
TX_1135169E_A,0.222308,-0.024911,0.000000,0.000000,0.000000,0.000000
TX_B5075150_A,0.223173,-0.023953,0.000000,0.000000,0.000000,0.000000
TX_P5074352_A,0.223141,-0.023874,0.000000,0.000000,0.000000,0.000000
TX_P5074562_A,0.446193,-0.047542,0.000000,0.000000,0.000000,0.000000
TX_P5074562_B,0.000000,0.000000,-0.267566,-0.361006,0.000000,0.000000
TX_P5074562_C,0.000000,0.000000,0.000000,0.000000,-0.176465,0.404755
TX_P5199701_A,0.222605,-0.024229,0.000000,0.000000,0.000000,0.000000
TX_P5199701_B,0.000000,0.000000,-0.133868,-0.179758,0.000000,0.000000
TX_P5199701_C,0.000000,0.000000,0.000000,0.000000,-0.087655,0.202081
TX_P5077206_A,0.222741,-0.024116,0.000000,0.000000,0.000000,0.000000
TX_P5077206_B,0.000000,0.000000,-0.133837,-0.179928,0.000000,0.000000
TX_P5077206_C,0.000000,0.000000,0.000000,0.000000,-0.087819,0.202138
TX_P5073756_A,0.223182,-0.023989,0.000000,0.000000,0.000000,0.000000
TX_P5074485_A,0.223167,-0.023950,0.000000,0.000000,0.000000,0.000000
TX_B5074724_A,0.446355,-0.047961,0.000000,0.000000,0.000000,0.000000
TX_P5072326_A,0.223259,-0.023137,0.000000,0.000000,0.000000,0.000000
TX_1135175E_A,0.222311,-0.024958,0.000000,0.000000,0.000000,0.000000
TX_P5071887_A,0.222659,-0.024288,0.000000,0.000000,0.000000,0.000000
TX_P5071887_B,0.000000,0.000000,-0.133945,-0.179772,0.000000,0.000000
TX_P5071887_C,0.000000,0.000000,0.000000,0.000000,-0.087633,0.202152
TX_1642360E_A,0.223072,-0.023883,0.000000,0.000000,0.000000,0.000000
TX_1642360E_B,0.000000,0.000000,-0.134251,-0.180426,0.000000,0.000000
TX_1642360E_C,0.000000,0.000000,0.000000,0.000000,-0.087725,0.202404
TX_P5074239_A,0.223001,-0.023646,0.000000,0.000000,0.000000,0.000000
TX_P5073701_A,0.223152,-0.023914,0.000000,0.000000,0.000000,0.000000
TX_P5073744_A,0.223149,-0.023868,0.000000,0.000000,0.000000,0.000000
TX_S5075193_A,0.222892,-0.024064,0.000000,0.000000,0.000000,0.000000
TX_S5075193_B,0.000000,0.000000,-0.133865,-0.180079,0.000000,0.000000
TX_S5075193_C,0.000000,0.000000,0.000000,0.000000,-0.087944,0.202235
TX_P5074351_A,0.223142,-0.023891,0.000000,0.000000,0.000000,0.000000
TX_P5075018_A,0.222891,-0.024029,0.000000,0.000000,0.000000,0.000000
TX_P5075018_B,0.000000,0.000000,-0.133835,-0.180096,0.000000,0.000000
TX_P5075018_C,0.000000,0.000000,0.000000,0.000000,-0.087971,0.202218
TX_B5075146_A,0.223180,-0.024041,0.000000,0.000000,0.000000,0.000000
TX_P5073740_A,0.223161,-0.023889,0.000000,0.000000,0.000000,0.000000
TX_P5073743_A,0.223153,-0.023869,0.000000,0.000000,0.000000,0.000000
TX_B5074718_A,0.446358,-0.047967,0.000000,0.000000,0.000000,0.000000
TX_1247617E_A,0.223000,-0.024588,0.000000,0.000000,0.000000,0.000000
TX_1247617E_B,0.000000,0.000000,-0.134111,-0.180265,0.000000,0.000000
TX_1247617E_C,0.000000,0.000000,0.000000,0.000000,-0.087829,0.202924
TX_P5073746_A,0.223141,-0.023882,0.000000,0.000000,0.000000,0.000000
TX_1326358E_A,0.222307,-0.024890,0.000000,0.000000,0.000000,0.000000
TX_P5074301_A,0.223185,-0.023988,0.000000,0.000000,0.000000,0.000000
TX_B5077654_A,0.223143,-0.023891,0.000000,0.000000,0.000000,0.000000
TX_P5075017_A,0.222894,-0.024099,0.000000,0.000000,0.000000,0.000000
TX_P5075017_B,0.000000,0.000000,-0.133897,-0.180063,0.000000,0.000000
TX_P5075017_C,0.000000,0.000000,0.000000,0.000000,-0.087915,0.202253
TX_P5074236_A,0.223002,-0.023664,0.000000,0.000000,0.000000,0.000000
TX_B5074717_A,0.446357,-0.047967,0.000000,0.000000,0.000000,0.000000
TX_P5073898_A,0.223110,-0.023727,0.000000,0.000000,0.000000,0.000000
TX_P5073758_A,0.446367,-0.047992,0.000000,0.000000,0.000000,0.000000
TX_P5075655_A,0.222250,-0.024950,0.000000,0.000000,0.000000,0.000000
TX_P5075655_B,0.000000,0.000000,-0.132320,-0.180438,0.000000,0.000000
TX_P5075655_C,0.000000,0.000000,0.000000,0.000000,-0.088812,0.203085
TX_1642351E_A,0.223200,-0.023647,0.000000,0.000000,0.000000,0.000000
TX_1642351E_B,0.000000,0.000000,-0.134511,-0.180417,0.000000,0.000000
TX_1642351E_C,0.000000,0.000000,0.000000,0.000000,-0.087632,0.202280
TX_P5072324_A,0.223055,-0.023528,0.000000,0.000000,0.000000,0.000000
TX_B5077656_A,0.223143,-0.023891,0.000000,0.000000,0.000000,0.000000
TX_P5074240_A,0.223000,-0.023646,0.000000,0.000000,0.000000,0.000000
TX_B5074719_A,0.446358,-0.047966,0.000000,0.000000,0.000000,0.000000
TX_P5199702_A,0.445059,-0.048609,0.000000,0.000000,0.000000,0.000000
TX_P5199702_B,0.000000,0.000000,-0.267792,-0.359312,0.000000,0.000000
TX_P5199702_C,0.000000,0.000000,0.000000,0.000000,-0.175105,0.404110
TX_P5539691_A,2.231239,-0.241584,0.000000,0.000000,0.000000,0.000000
TX_P5539691_B,0.000000,0.000000,-1.340586,-1.802215,0.000000,0.000000
TX_P5539691_C,0.000000,0.000000,0.000000,0.000000,-0.879886,2.024654
TX_P5073741_A,0.223160,-0.023888,0.000000,0.000000,0.000000,0.000000
TX_P5073745_A,0.223143,-0.023866,0.000000,0.000000,0.000000,0.000000
TX_P5075012_A,0.223157,-0.023933,0.000000,0.000000,0.000000,0.000000
TX_P5075012_B,0.000000,0.000000,-0.133745,-0.180297,0.000000,0.000000
TX_P5075012_C,0.000000,0.000000,0.000000,0.000000,-0.088310,0.202322
TX_P5074299_A,0.223184,-0.023988,0.000000,0.000000,0.000000,0.000000
TX_P5072451_A,0.223229,-0.023193,0.000000,0.000000,0.000000,0.000000
TX_1326355E_A,0.222311,-0.024958,0.000000,0.000000,0.000000,0.000000
TX_P5075194_A,0.222890,-0.024005,0.000000,0.000000,0.000000,0.000000
TX_P5075194_B,0.000000,0.000000,-0.133813,-0.180106,0.000000,0.000000
TX_P5075194_C,0.000000,0.000000,0.000000,0.000000,-0.087990,0.202205
TX_1642356E_A,0.223276,-0.023506,0.000000,0.000000,0.000000,0.000000
TX_1642356E_B,0.000000,0.000000,-0.134667,-0.180412,0.000000,0.000000
TX_1642356E_C,0.000000,0.000000,0.000000,0.000000,-0.087575,0.202206
TX_B5074723_A,0.223177,-0.023958,0.000000,0.000000,0.000000,0.000000
TX_P5074480_A,0.223171,-0.023943,0.000000,0.000000,0.000000,0.000000
TX_1135168E_A,0.222313,-0.025035,0.000000,0.000000,0.000000,0.000000
TX_P5074502_A,0.223142,-0.023893,0.000000,0.000000,0.000000,0.000000
TX_P5074477_A,0.446343,-0.047931,0.000000,0.000000,0.000000,0.000000
TX_1736709E_A,0.222165,-0.025152,0.000000,0.000000,0.000000,0.000000
TX_1736709E_B,0.000000,0.000000,-0.132221,-0.180391,0.000000,0.000000
TX_1736709E_C,0.000000,0.000000,0.000000,0.000000,-0.088827,0.203194
TX_1680935E_A,0.222308,-0.024912,0.000000,0.000000,0.000000,0.000000
TX_P5074235_A,0.249909,-0.027437,0.000000,0.000000,0.000000,0.000000
TX_P5074481_A,0.446346,-0.047933,0.000000,0.000000,0.000000,0.000000
TX_P5074499_A,0.223141,-0.023890,0.000000,0.000000,0.000000,0.000000
TX_P5074300_A,0.446370,-0.047988,0.000000,0.000000,0.000000,0.000000
TX_P5073896_A,0.223125,-0.023722,0.000000,0.000000,0.000000,0.000000
TX_P5073742_A,0.223157,-0.023888,0.000000,0.000000,0.000000,0.000000
TX_P5073264_A,0.223230,-0.023210,0.000000,0.000000,0.000000,0.000000
TX_P5073703_A,0.223137,-0.023880,0.000000,0.000000,0.000000,0.000000
TX_P5075198_A,0.222893,-0.024032,0.000000,0.000000,0.000000,0.000000
TX_P5075198_B,0.000000,0.000000,-0.133838,-0.180096,0.000000,0.000000
TX_P5075198_C,0.000000,0.000000,0.000000,0.000000,-0.087970,0.202221
TX_B5075148_A,0.223178,-0.023977,0.000000,0.000000,0.000000,0.000000
TX_P5398462_A,0.222302,-0.024853,0.000000,0.000000,0.000000,0.000000
TX_P5398462_B,0.000000,0.000000,-0.132392,-0.180456,0.000000,0.000000
TX_P5398462_C,0.000000,0.000000,0.000000,0.000000,-0.088790,0.203032
TX_1247610E_A,0.222308,-0.024909,0.000000,0.000000,0.000000,0.000000
TX_P5075202_A,0.222890,-0.023987,0.000000,0.000000,0.000000,0.000000
TX_P5075202_B,0.000000,0.000000,-0.133798,-0.180116,0.000000,0.000000
TX_P5075202_C,0.000000,0.000000,0.000000,0.000000,-0.088006,0.202197
TX_P5073760_A,0.223183,-0.023970,0.000000,0.000000,0.000000,0.000000
TX_4444588E_A,0.223135,-0.023873,0.000000,0.000000,0.000000,0.000000
TX_4444588E_B,0.000000,0.000000,-0.133783,-0.180344,0.000000,0.000000
TX_4444588E_C,0.000000,0.000000,0.000000,0.000000,-0.088255,0.202302
TX_1446923E_A,0.222969,-0.023952,0.000000,0.000000,0.000000,0.000000
TX_1326357E_A,0.222307,-0.024891,0.000000,0.000000,0.000000,0.000000
TX_P5073757_A,0.446366,-0.047992,0.000000,0.000000,0.000000,0.000000
TX_1247612E_A,0.222308,-0.024910,0.000000,0.000000,0.000000,0.000000
TX_B5077651_A,0.223142,-0.023890,0.000000,0.000000,0.000000,0.000000
TX_P5073738_A,0.223152,-0.023914,0.000000,0.000000,0.000000,0.000000
TX_P5075011_A,0.669451,-0.071774,0.000000,0.000000,0.000000,0.000000
TX_P5075011_B,0.000000,0.000000,-0.401313,-0.540922,0.000000,0.000000
TX_P5075011_C,0.000000,0.000000,0.000000,0.000000,-0.264838,0.606965
TX_B5077461_A,0.223142,-0.023890,0.000000,0.000000,0.000000,0.000000
TX_B5075149_A,0.223173,-0.023970,0.000000,0.000000,0.000000,0.000000
TX_P5511928_A,0.222742,-0.024135,0.000000,0.000000,0.000000,0.000000
TX_P5511928_B,0.000000,0.000000,-0.133854,-0.179918,0.000000,0.000000
TX_P5511928_C,0.000000,0.000000,0.000000,0.000000,-0.087803,0.202148
TX_1326361E_A,0.222977,-0.024100,0.000000,0.000000,0.000000,0.000000
TX_1326361E_B,0.000000,0.000000,-0.133675,-0.180493,0.000000,0.000000
TX_1326361E_C,0.000000,0.000000,0.000000,0.000000,-0.088224,0.202673
TX_P5073761_A,0.223181,-0.023969,0.000000,0.000000,0.000000,0.000000
TX_P5073894_A,0.223125,-0.023722,0.000000,0.000000,0.000000,0.000000
TX_P5073759_A,0.223182,-0.023973,0.000000,0.000000,0.000000,0.000000
TX_1629123E_A,0.223014,-0.023929,0.000000,0.000000,0.000000,0.000000
TX_1629123E_B,0.000000,0.000000,-0.133657,-0.180523,0.000000,0.000000
TX_1629123E_C,0.000000,0.000000,0.000000,0.000000,-0.088279,0.202546
TX_P5074483_A,0.223167,-0.023950,0.000000,0.000000,0.000000,0.000000
TX_B5074725_A,0.223175,-0.023956,0.000000,0.000000,0.000000,0.000000
TX_P5074237_A,0.223002,-0.023664,0.000000,0.000000,0.000000,0.000000
TX_S5072983_A,0.223189,-0.024135,0.000000,0.000000,0.000000,0.000000
TX_S5072983_B,0.000000,0.000000,-0.133819,-0.180183,0.000000,0.000000
TX_S5072983_C,0.000000,0.000000,0.000000,0.000000,-0.088267,0.202410
TX_B5077652_A,0.223142,-0.023890,0.000000,0.000000,0.000000,0.000000
TX_1326351E_A,0.222309,-0.024917,0.000000,0.000000,0.000000,0.000000
TX_P5073895_A,0.446253,-0.047491,0.000000,0.000000,0.000000,0.000000
TX_688977H_A,0.222307,-0.024941,0.000000,0.000000,0.000000,0.000000
TX_B5075147_A,0.223177,-0.023977,0.000000,0.000000,0.000000,0.000000
TX_P5074302_A,0.223185,-0.023988,0.000000,0.000000,0.000000,0.000000
TX_P5076245_A,0.222969,-0.023937,0.000000,0.000000,0.000000,0.000000
TX_P5076245_B,0.000000,0.000000,-0.133530,-0.180569,0.000000,0.000000
TX_P5076245_C,0.000000,0.000000,0.000000,0.000000,-0.088356,0.202589
TX_P5073897_A,0.223110,-0.023727,0.000000,0.000000,0.000000,0.000000
TX_P5074303_A,0.223183,-0.023973,0.000000,0.000000,0.000000,0.000000
TX_P5074478_A,0.223171,-0.023943,0.000000,0.000000,0.000000,0.000000
TX_P5074503_A,0.223142,-0.023876,0.000000,0.000000,0.000000,0.000000
TX_P5072449_A,0.223228,-0.023208,0.000000,0.000000,0.000000,0.000000
TX_P5446956_A,0.222891,-0.024029,0.000000,0.000000,0.000000,0.000000
TX_P5446956_B,0.000000,0.000000,-0.133835,-0.180096,0.000000,0.000000
TX_P5446956_C,0.000000,0.000000,0.000000,0.000000,-0.087971,0.202218
TX_P5073739_A,0.223162,-0.023889,0.000000,0.000000,0.000000,0.000000
TX_B5077653_A,0.223145,-0.023954,0.000000,0.000000,0.000000,0.000000
TX_4686029E_A,0.222974,-0.024029,0.000000,0.000000,0.000000,0.000000
TX_4686029E_B,0.000000,0.000000,-0.133612,-0.180526,0.000000,0.000000
TX_4686029E_C,0.000000,0.000000,0.000000,0.000000,-0.088281,0.202637
TX_P5072327_A,0.223263,-0.023218,0.000000,0.000000,0.000000,0.000000
TX_P5446885_A,0.222743,-0.024159,0.000000,0.000000,0.000000,0.000000
TX_P5446885_B,0.000000,0.000000,-0.133875,-0.179908,0.000000,0.000000
TX_P5446885_C,0.000000,0.000000,0.000000,0.000000,-0.087785,0.202160
TX_P5074304_A,0.223183,-0.023973,0.000000,0.000000,0.000000,0.000000
TX_P5073762_A,0.223180,-0.023969,0.000000,0.000000,0.000000,0.000000
TX_1573760E_A,0.223004,-0.024280,0.000000,0.000000,0.000000,0.000000
TX_1573760E_B,0.000000,0.000000,-0.133890,-0.180387,0.000000,0.000000
TX_1573760E_C,0.000000,0.000000,0.000000,0.000000,-0.088047,0.202752
TX_P5074486_A,0.223166,-0.023933,0.000000,0.000000,0.000000,0.000000
TX_P5071457_A,0.223052,-0.023912,0.000000,0.000000,0.000000,0.000000
TX_P5071457_B,0.000000,0.000000,-0.133755,-0.180491,0.000000,0.000000
TX_P5071457_C,0.000000,0.000000,0.000000,0.000000,-0.088219,0.202499
TX_P5072323_A,0.223058,-0.023591,0.000000,0.000000,0.000000,0.000000
TX_P5072450_A,0.223232,-0.023273,0.000000,0.000000,0.000000,0.000000
TX_2023493E_A,0.223045,-0.024146,0.000000,0.000000,0.000000,0.000000
TX_2023493E_B,0.000000,0.000000,-0.133911,-0.180400,0.000000,0.000000
TX_2023493E_C,0.000000,0.000000,0.000000,0.000000,-0.088065,0.202637
TX_P5075199_A,0.445787,-0.048064,0.000000,0.000000,0.000000,0.000000
TX_P5075199_B,0.000000,0.000000,-0.267676,-0.360193,0.000000,0.000000
TX_P5075199_C,0.000000,0.000000,0.000000,0.000000,-0.188822,0.450534
TX_P5072325_A,0.223260,-0.023154,0.000000,0.000000,0.000000,0.000000
TX_4366140E_A,0.222305,-0.024943,0.000000,0.000000,0.000000,0.000000
TX_4366140E_B,0.000000,0.000000,-0.132475,-0.180414,0.000000,0.000000
TX_4366140E_C,0.000000,0.000000,0.000000,0.000000,-0.088713,0.203079
TX_P5073899_A,0.223110,-0.023727,0.000000,0.000000,0.000000,0.000000
TX_P5073279_A,0.223229,-0.023209,0.000000,0.000000,0.000000,0.000000
TX_P5072452_A,0.223259,-0.023152,0.000000,0.000000,0.000000,0.000000
TX_P5074479_A,0.223171,-0.023943,0.000000,0.000000,0.000000,0.000000
TX_P5072453_A,0.223259,-0.023152,0.000000,0.000000,0.000000,0.000000
source_01734$node_01734,44.042300,85.714418,67.834974,-59.386134,-219.509478,-106.214853
line_P5073742-2_01734$P5073741-B_01734,0.669482,-0.071666,0.000000,-0.000000,0.000000,0.000000
line_BS0643-L_01734$35122213_01734,0.445484,-0.048275,-0.267712,-0.359835,-0.175604,0.404298
line_P5073893-2_01734$98883319_01734,0.892502,-0.094935,0.000000,0.000000,0.000000,0.000000
line_P5074299-B_01734$P5074300-1_01734,0.892740,-0.095964,-0.000000,-0.000000,0.000000,0.000000
line_ND35122373_01734$P5075012-1_01734,0.223158,-0.023933,-0.133745,-0.180297,-0.088310,0.202322
line_B5077461-2_01734$B5077656-2_01734,0.669431,-0.071736,-0.000000,0.000000,0.000000,0.000000
line_1680896E_01734_1$P5074562-1_01734,0.446193,-0.047542,-0.267566,-0.361006,-0.176465,0.404755
line_164818749_01734$164818881_01734_1,1.785226,-0.191039,-0.000000,-0.000000,0.000000,0.000000
line_35093919_01734$S5072983_01734,0.223189,-0.024135,-0.133819,-0.180183,-0.088267,0.202410
line_P5073761-2_01734$96744640_01734_1,1.339107,-0.143922,-0.000000,-0.000000,0.000000,0.000000
line_P5074238-2_01734$118982594_01734,0.446004,-0.047327,0.000000,0.000000,0.000000,0.000000
line_BS5010-1_01734_1$P5075009-1_01734,0.223144,-0.023902,-0.133774,-0.180323,-0.088271,0.202313
line_P5073895-B_01734$P5073896-2_01734,0.223125,-0.023722,0.000000,0.000000,0.000000,0.000000
line_530834E_01734_1$P5071096-1_01734,1.113685,-0.122400,-0.667312,-0.902002,-0.440858,1.014136
line_PME3204-2_01734_1$35067949_01734,2.231239,-0.241585,-1.340586,-1.802215,-0.879886,2.024655
line_35122223_01734_1$35122233_01734_1,0.222743,-0.024159,-0.133875,-0.179908,-0.087785,0.202160
line_1677561E_01734_1$155520478_01734,1.785463,-0.191891,0.000000,0.000000,0.000000,0.000000
line_1881969E_01734$GS0492-4_01734,27.079522,87.549438,71.971892,-53.791967,-83.866688,-36.557183
line_174293802_01734$P5074351-B_01734,0.223142,-0.023891,0.000000,-0.000000,0.000000,0.000000
line_BS1944-R_01734$153008799_01734_1,0.724944,90.383644,77.461149,-46.405205,-80.243715,-44.898351
line_B5077656-1_01734$B5077655-1_01734,0.446289,-0.047845,0.000000,0.000000,0.000000,0.000000
line_P5074301-B_01734$P5074302-2_01734,0.223185,-0.023988,0.000000,-0.000000,0.000000,0.000000
line_P5073757-2_01734$P5073758-B_01734,1.115915,-0.119911,0.000000,0.000000,0.000000,0.000000
line_B5074723-2_01734$B5074722_01734_1,1.362219,0.380108,0.000000,0.000000,0.000000,0.000000
line_ND35123161_01734$P5075194-1_01734,0.222890,-0.024005,-0.133813,-0.180106,-0.087990,0.202205
line_B5077460-2_01734$B5077651-1_01734,0.669429,-0.071734,-0.000000,-0.000000,0.000000,0.000000
line_ND35122490_01734$35122157_01734_1,0.668682,-0.072127,-0.401542,-0.540275,-0.263886,0.606679
line_P5074240-2_01734$35121135_01734_1,0.892006,-0.094637,0.000000,0.000000,0.000000,0.000000
line_153008799_01734$P5199701-A_01734,0.724944,90.383644,77.461149,-46.405205,-80.243715,-44.898351
line_1680897E_01734$P5074968-1_01734,0.223085,-0.023788,-0.133762,-0.180508,-0.088243,0.202398
line_1592668E_01734$P5072323-A_01734,0.446114,-0.047119,0.000000,0.000000,0.000000,0.000000
line_2215644E_01734_1$P5072327-B_01734,0.669782,-0.069510,0.000000,-0.000000,0.000000,0.000000
line_1642362E_01734$35121145_01734_1,1.115007,-0.118284,0.000000,0.000000,0.000000,0.000000
line_174293723_01734_1$P5074500-1_01734,0.669425,-0.071655,-0.000000,-0.000000,0.000000,0.000000
line_1912007E_01734_1$BS5010-1_01734,0.223144,-0.023902,-0.133774,-0.180323,-0.088271,0.202313
line_P5074350-B_01734$35122177_01734,-0.000000,-0.000000,-0.000000,-0.000000,0.000000,0.000000
line_1912002E_01734$P5074477-2_01734,2.008549,-0.215625,-0.000000,-0.000000,0.000000,0.000000
line_P5073760-2_01734$96744583_01734,1.115925,-0.119952,-0.000000,-0.000000,0.000000,0.000000
line_1677560E_01734$35093919_01734,0.223189,-0.024135,-0.133819,-0.180183,-0.088266,0.202410
line_P5074239-2_01734$35067245_01734_1,0.669006,-0.070991,0.000000,0.000000,0.000000,0.000000
line_35066524_01734$P5076245_01734,0.222969,-0.023937,-0.133530,-0.180569,-0.088356,0.202589
line_P5074483-1_01734$P5074482-B_01734,0.000000,-0.000000,-0.000000,-0.000000,0.000000,0.000000
line_35066117_01734$OS0456-6_01734,1.783145,-0.192219,-1.070672,-1.440787,-0.716673,1.663841
line_P5074237-2_01734$148470615_01734_1,0.223002,-0.023664,0.000000,0.000000,0.000000,0.000000
line_BS5316-L_01734$P5075014-1_01734,0.669489,-0.071865,-0.401230,-0.540844,-0.264952,0.606992
line_P5074478-1_01734$153008217_01734,1.339035,-0.143752,0.000000,-0.000000,0.000000,0.000000
line_530833E_01734$P5071095-A_01734,0.889714,-0.098691,-0.530617,-0.721887,-0.354628,0.811745
line_164818695_01734_1$P5073745-1_01734,1.562085,-0.167157,-0.000000,-0.000000,0.000000,0.000000
line_98883319_01734_1$P5073894-1_01734,0.892502,-0.094935,0.000000,0.000000,0.000000,0.000000
line_P5073703-2_01734$147900999_01734_1,2.008364,-0.214920,-0.000000,-0.000000,0.000000,0.000000
line_P5072326-A_01734$P5072325-B_01734,0.223260,-0.023154,-0.000000,-0.000000,0.000000,0.000000
line_35094824_01734$GS0492-3_01734,27.079522,87.549439,71.971892,-53.791967,-83.866688,-36.557183
line_P5074304-2_01734$P5074303-B_01734,0.223183,-0.023973,0.000000,0.000000,0.000000,0.000000
line_ND35123161_01734$S5075193_01734,0.222892,-0.024064,-0.133865,-0.180079,-0.087944,0.202235
line_1677563E_01734_1$P5073763-A_01734,2.008649,-0.215828,-0.000000,-0.000000,0.000000,0.000000
line_P5073701-B_01734$P5073738-2_01734,0.223152,-0.023914,0.000000,0.000000,0.000000,0.000000
line_96744670_01734_1$P5073761-1_01734,1.562289,-0.167891,-0.000000,0.000000,0.000000,0.000000
line_164818668_01734$151792375_01734_1,1.338942,-0.143291,-0.000000,-0.000000,0.000000,0.000000
line_35122101_01734_1$P5075011-1_01734,0.669451,-0.071774,-0.401313,-0.540922,-0.264838,0.606965
line_35122233_01734$P5446885-1_01734,0.222743,-0.024159,-0.133875,-0.179908,-0.087785,0.202160
line_P5073759-1_01734$P5074304-1_01734,0.446366,-0.047946,0.000000,0.000000,0.000000,0.000000
line_35094800_01734$35094808_01734,20.111739,-2.159546,-1.739385,-2.343467,-1.147411,2.630597
line_35066085_01734$OS0456-1_01734,0.668677,-0.072157,-0.401566,-0.540254,-0.263858,0.606689
line_148470669_01734_1$P5074235-A_01734,-0.000000,0.000000,0.000000,0.000000,0.000000,0.000000
line_P5074485-1_01734$P5074484-2_01734,0.446334,-0.047884,-0.000000,-0.000000,0.000000,0.000000
line_P5073743-A_01734$P5073742-1_01734,0.892640,-0.095554,0.000000,-0.000000,0.000000,0.000000
line_4009399E_01734$GS1322-1_01734,0.000000,0.000000,-0.000000,-0.000000,0.000000,0.000000
line_153008298_01734_1$P5074481-1_01734,0.892693,-0.095866,-0.000000,-0.000000,0.000000,0.000000
line_P5073899-A_01734$P5073898-1_01734,0.446220,-0.047454,-0.000000,-0.000000,0.000000,0.000000
line_1677566E_01734_1$B5074725-2_01734,2.254927,0.284234,0.000000,0.000000,0.000000,0.000000
line_151792375_01734$P5073744-2_01734,1.338942,-0.143291,-0.000000,0.000000,0.000000,0.000000
line_ND35122490_01734$P5075200-1_01734,0.222892,-0.024009,-0.133818,-0.180107,-0.087989,0.202209
line_153008271_01734_1$P5074480-2_01734,1.115864,-0.119809,-0.000000,-0.000000,0.000000,0.000000
line_GS0492-3_01734_1$ND144833337_01734,2.454351,-0.265517,-1.474443,-1.982542,-0.968056,2.227004
line_174293775_01734$P5074352-2_01734,0.446283,-0.047764,-0.000000,-0.000000,0.000000,0.000000
line_OS0456-1_01734_1$P5075017-B_01734,0.668677,-0.072157,-0.401566,-0.540254,-0.263858,0.606689
line_1912006E_01734$35122101_01734,0.669451,-0.071774,-0.401313,-0.540922,-0.264838,0.606965
line_P5074300-2_01734$P5074301-A_01734,0.446370,-0.047976,0.000000,-0.000000,0.000000,0.000000
line_B5074724-2_01734$B5074723-1_01734,1.585397,0.356151,0.000000,0.000000,0.000000,0.000000
line_4232559E_01734$P5073701-A_01734,0.446304,-0.047828,0.000000,0.000000,0.000000,0.000000
line_PME3204-1_01734$PME3204-2_01734,2.231239,-0.241585,-1.340586,-1.802215,-0.879886,2.024655
line_1642352E_01734_1$P5072449-A_01734,1.339381,-0.139367,0.000000,0.000000,0.000000,0.000000
line_B5077655-2_01734$B5077654-1_01734,0.223143,-0.023891,0.000000,0.000000,0.000000,0.000000
line_1912001E_01734$OS0456-2_01734,0.000000,-0.000000,0.000000,-0.000000,0.000000,0.000000
line_P5074480-1_01734$153008298_01734,0.892693,-0.095866,-0.000000,-0.000000,0.000000,0.000000
line_35122177_01734_1$P5074351-A_01734,0.000000,-0.000000,-0.000000,-0.000000,0.000000,0.000000
line_1677565E_01734$B5075146-1_01734,0.669535,-0.071996,0.000000,0.000000,0.000000,0.000000
line_118982594_01734_1$148470588_01734_1,0.446004,-0.047327,0.000000,0.000000,0.000000,0.000000
line_35066117_01734$35066109_01734,2.730287,90.166720,76.256392,-48.025171,-81.034548,-43.078625
line_B5074719-2_01734$B5074720-1_01734,-0.442653,-0.479852,0.000000,0.000000,0.000000,0.000000
line_1130007E_01734$174293671_01734_1,0.892566,-0.095545,-0.000000,-0.000000,0.000000,0.000000
line_35122213_01734_1$P5077206_01734,0.445484,-0.048275,-0.267712,-0.359835,-0.175604,0.404298
line_P5074499-2_01734$174293698_01734,0.669425,-0.071655,-0.000000,0.000000,0.000000,0.000000
line_96744640_01734$96744610_01734,1.339107,-0.143922,-0.000000,-0.000000,0.000000,0.000000
line_ND35123024_01734$BS1944-T_01734,0.947603,90.359356,77.327203,-46.584977,-80.331349,-44.696199
line_BS1944-L_01734$P5071887-1_01734,0.222659,-0.024288,-0.133945,-0.179772,-0.087633,0.202152
line_P5073745-2_01734$164818668_01734_1,1.338942,-0.143291,-0.000000,-0.000000,0.000000,0.000000
line_35122121_01734$P5075018-A_01734,0.445782,-0.048058,-0.267669,-0.360191,-0.175943,0.404435
line_OS0456-4_01734$ND35123024_01734,1.615829,90.286946,76.925637,-47.124731,-80.594756,-44.089754
line_35122131_01734$P5446956-1_01734,0.222891,-0.024029,-0.133835,-0.180096,-0.087971,0.202218
line_153008244_01734$153008271_01734,1.115864,-0.119809,0.000000,-0.000000,0.000000,0.000000
line_P5073896-1_01734$P5073897-A_01734,-0.000000,0.000000,0.000000,-0.000000,0.000000,0.000000
line_P5075017-A_01734$35122121_01734_1,0.445782,-0.048058,-0.267669,-0.360191,-0.175943,0.404435
line_1642357E_01734$P5072452-B_01734,0.446518,-0.046304,0.000000,-0.000000,0.000000,0.000000
line_P5072452-A_01734$P5072453-B_01734,0.223259,-0.023152,0.000000,0.000000,0.000000,0.000000
line_B5075147-2_01734$B5075148-2_01734,0.223178,-0.023977,0.000000,0.000000,0.000000,0.000000
line_1680893E_01734_1$98883292_01734_1,1.115627,-0.118657,0.000000,0.000000,0.000000,0.000000
line_174293698_01734_1$174293723_01734,0.669425,-0.071655,-0.000000,0.000000,0.000000,0.000000
line_P5073762-1_01734$90063661_01734_1,1.562289,-0.167891,-0.000000,0.000000,0.000000,0.000000
line_P5073898-2_01734$P5073897-B_01734,0.223110,-0.023727,0.000000,-0.000000,0.000000,0.000000
line_B5074718-1_01734$B5074719-1_01734,0.003705,-0.527818,0.000000,0.000000,0.000000,0.000000
line_P5074502-B_01734$35069085_01734_1,0.669430,-0.071726,-0.000000,0.000000,0.000000,0.000000
line_01734$1727251E_01734_1_01734,44.042300,85.714418,67.834974,-59.386134,-219.509478,-106.214853
line_B5074717-2_01734$B5074718-2_01734,0.450063,-0.575784,0.000000,0.000000,0.000000,0.000000
line_P5073263-B_01734$P5072451-A_01734,0.223229,-0.023193,0.000000,-0.000000,0.000000,0.000000
line_35121135_01734$35067235_01734,0.892006,-0.094637,0.000000,0.000000,0.000000,0.000000
line_1326362E_01734$P5328820-1_01734,0.445941,-0.047919,-0.267101,-0.361117,-0.176674,0.405202
line_1912004E_01734_1$BS5316-T_01734,0.892651,-0.095787,-0.534944,-0.721142,-0.353296,0.809306
line_P5074481-2_01734$P5074482-A_01734,0.446346,-0.047933,-0.000000,-0.000000,0.000000,0.000000
line_35069085_01734$P5074503-1_01734,0.669430,-0.071726,-0.000000,0.000000,0.000000,0.000000
line_ND35123097_01734$173509243_01734,0.222893,-0.024032,-0.133838,-0.180096,-0.087970,0.202221
line_164818722_01734_1$P5073702-1_01734,2.008364,-0.214920,-0.000000,-0.000000,0.000000,0.000000
line_GS0492-3_01734$35094800_01734,24.625171,87.814955,73.446336,-51.809425,-82.898632,-38.784187
line_ND35123097_01734$ND35122489_01734,1.337361,-0.144200,-0.803036,-1.080574,-0.540697,1.259422
line_148470588_01734$P5074237-1_01734,0.446004,-0.047327,0.000000,0.000000,0.000000,0.000000
...